10
acetone
C          0.98134       -0.06360        0.07051
C          2.48650       -0.05147        0.05213
C          3.22000       -0.77562        1.14919
O          3.10249        0.53629       -0.83831
H          0.60054       -0.62776        0.92519
H          0.61486       -0.53229       -0.84639
H          0.61485        0.96372        0.14109
H          2.52352       -1.23937        1.85176
H          3.84235       -0.06280        1.69624
H          3.84235       -1.55881        0.70876
